<?xml version="1.0" encoding="UTF-8"?>

<!-- generated on 2021-12-17 22:26:39 by Eclipse SUMO duarouter Version 1.11.0
<configuration xmlns:xsi="http://www.w3.org/2001/XMLSchema-instance" xsi:noNamespaceSchemaLocation="http://sumo.dlr.de/xsd/duarouterConfiguration.xsd">

    <input>
        <net-file value="/home/sumo/Documentos/my_project/2021-12-17-22-26-36/osm.net.xml"/>
        <route-files value="/home/sumo/Documentos/my_project/2021-12-17-22-26-36/osm.passenger.trips.xml"/>
    </input>

    <output>
        <output-file value="/home/sumo/Documentos/my_project/2021-12-17-22-26-36/osm.passenger.trips.xml.tmp"/>
        <write-trips value="true"/>
    </output>

    <time>
        <begin value="0"/>
        <end value="3600"/>
    </time>

    <report>
        <no-warnings value="true"/>
        <ignore-errors value="true"/>
        <no-step-log value="true"/>
    </report>

</configuration>
-->

<routes xmlns:xsi="http://www.w3.org/2001/XMLSchema-instance" xsi:noNamespaceSchemaLocation="http://sumo.dlr.de/xsd/routes_file.xsd">
    <vType id="veh_passenger" vClass="passenger"/>
    <trip id="veh0" type="veh_passenger" depart="0.00" departLane="best" from="291700244#3" to="-267495034#0"/>
    <trip id="veh1" type="veh_passenger" depart="1.87" departLane="best" from="-571119586" to="-291703439#1"/>
    <trip id="veh2" type="veh_passenger" depart="3.75" departLane="best" from="291703412#2" to="291703358"/>
    <trip id="veh3" type="veh_passenger" depart="5.62" departLane="best" departSpeed="max" from="736610253#0" to="-291540563#1"/>
    <trip id="veh4" type="veh_passenger" depart="7.50" departLane="best" departSpeed="max" from="144883328#0" to="-267495035#1"/>
    <trip id="veh5" type="veh_passenger" depart="9.37" departLane="best" from="-291703411" to="291540556#2"/>
    <trip id="veh6" type="veh_passenger" depart="11.25" departLane="best" from="291701887#0" to="291684780#5"/>
    <trip id="veh7" type="veh_passenger" depart="13.12" departLane="best" from="-291703412#0" to="291699397#0"/>
    <trip id="veh8" type="veh_passenger" depart="15.00" departLane="best" from="321892744#0" to="-144883328#0"/>
    <trip id="veh9" type="veh_passenger" depart="16.87" departLane="best" from="321892742" to="291703366#4"/>
    <trip id="veh10" type="veh_passenger" depart="18.74" departLane="best" departSpeed="max" from="-736610251" to="-291703353#0"/>
    <trip id="veh11" type="veh_passenger" depart="20.62" departLane="best" from="936779325" to="-736610266#0"/>
    <trip id="veh12" type="veh_passenger" depart="22.49" departLane="best" from="687856970#3" to="291700239#1"/>
    <trip id="veh13" type="veh_passenger" depart="24.37" departLane="best" from="321892743" to="291703415#0"/>
    <trip id="veh14" type="veh_passenger" depart="26.24" departLane="best" from="291540553#3" to="956465295"/>
    <trip id="veh15" type="veh_passenger" depart="28.12" departLane="best" departSpeed="max" from="-736610260" to="291697485#1"/>
    <trip id="veh16" type="veh_passenger" depart="29.99" departLane="best" from="571119586" to="291700795"/>
    <trip id="veh17" type="veh_passenger" depart="31.87" departLane="best" from="733481804#3" to="291698503"/>
    <trip id="veh18" type="veh_passenger" depart="33.74" departLane="best" from="-291703415#0" to="-733481813#0"/>
    <trip id="veh19" type="veh_passenger" depart="35.61" departLane="best" from="-291540556#2" to="-291703441#0"/>
    <trip id="veh20" type="veh_passenger" depart="37.49" departLane="best" departSpeed="max" from="-291698503" to="-733481809"/>
    <trip id="veh21" type="veh_passenger" depart="39.36" departLane="best" from="291700242" to="-956522410"/>
    <trip id="veh22" type="veh_passenger" depart="41.24" departLane="best" from="-736610256#1" to="-291703417#1"/>
    <trip id="veh23" type="veh_passenger" depart="43.11" departLane="best" departSpeed="max" from="-561043342#1" to="736610259#3"/>
    <trip id="veh24" type="veh_passenger" depart="44.99" departLane="best" from="291700797#0" to="291700242"/>
    <trip id="veh25" type="veh_passenger" depart="46.86" departLane="best" departSpeed="max" from="-291703354" to="291703415#0"/>
    <trip id="veh26" type="veh_passenger" depart="48.74" departLane="best" from="-291701904" to="144883328#0"/>
    <trip id="veh27" type="veh_passenger" depart="50.61" departLane="best" from="956556979" to="291701894#1"/>
    <trip id="veh28" type="veh_passenger" depart="52.48" departLane="best" departSpeed="max" from="631673121" to="321892733#0"/>
    <trip id="veh29" type="veh_passenger" depart="54.36" departLane="best" from="-291703415#0" to="-267495036#0"/>
    <trip id="veh30" type="veh_passenger" depart="56.23" departLane="best" departSpeed="max" from="-733481812#1" to="-631673121"/>
    <trip id="veh31" type="veh_passenger" depart="58.11" departLane="best" departSpeed="max" from="-291703369#2" to="736610261"/>
    <trip id="veh32" type="veh_passenger" depart="59.98" departLane="best" departSpeed="max" from="733481812#0" to="-736610257#0"/>
    <trip id="veh33" type="veh_passenger" depart="61.86" departLane="best" from="291701889#2" to="267495029#4"/>
    <trip id="veh34" type="veh_passenger" depart="63.73" departLane="best" departSpeed="max" from="736610262" to="291537458#3"/>
    <trip id="veh35" type="veh_passenger" depart="65.61" departLane="best" from="-55874453#3" to="-55874453#0"/>
    <trip id="veh36" type="veh_passenger" depart="67.48" departLane="best" from="291684768#0" to="-631671455"/>
    <trip id="veh37" type="veh_passenger" depart="69.35" departLane="best" from="291684780#1" to="736610248#2"/>
    <trip id="veh38" type="veh_passenger" depart="71.23" departLane="best" from="-935854901" to="-291703422"/>
    <trip id="veh39" type="veh_passenger" depart="73.10" departLane="best" departSpeed="max" from="-291697485#1" to="-267502631#2"/>
    <trip id="veh40" type="veh_passenger" depart="74.98" departLane="best" from="-291699390" to="291701889#2"/>
    <trip id="veh41" type="veh_passenger" depart="76.85" departLane="best" from="321892732#0" to="267502631#2"/>
    <trip id="veh42" type="veh_passenger" depart="78.73" departLane="best" from="-291537485#2" to="144883328#1"/>
    <trip id="veh43" type="veh_passenger" depart="80.60" departLane="best" from="958175013" to="291684774#1"/>
    <trip id="veh44" type="veh_passenger" depart="82.48" departLane="best" from="956481329#1" to="733481811"/>
    <trip id="veh45" type="veh_passenger" depart="84.35" departLane="best" from="-267495027#1" to="291703412#0"/>
    <trip id="veh46" type="veh_passenger" depart="86.23" departLane="best" from="291701904" to="291684778#2"/>
    <trip id="veh47" type="veh_passenger" depart="88.10" departLane="best" departSpeed="max" from="-561043342#1" to="291701894#1"/>
    <trip id="veh48" type="veh_passenger" depart="89.97" departLane="best" from="-291699394" to="267502634#2"/>
    <trip id="veh49" type="veh_passenger" depart="91.85" departLane="best" from="267495035#1" to="736610266#1"/>
    <trip id="veh50" type="veh_passenger" depart="93.72" departLane="best" departSpeed="max" from="733481812#0" to="-631671455"/>
    <trip id="veh51" type="veh_passenger" depart="95.60" departLane="best" from="291537458#2" to="-291703366#1"/>
    <trip id="veh52" type="veh_passenger" depart="97.47" departLane="best" from="736610259#2" to="733481812#1"/>
    <trip id="veh53" type="veh_passenger" depart="99.35" departLane="best" departSpeed="max" from="-733481810" to="291701894#0"/>
    <trip id="veh54" type="veh_passenger" depart="101.22" departLane="best" from="291699390" to="-291701904"/>
    <trip id="veh55" type="veh_passenger" depart="103.10" departLane="best" from="291703439#0" to="291684778#4"/>
    <trip id="veh56" type="veh_passenger" depart="104.97" departLane="best" from="321892729#0" to="291684774#2"/>
    <trip id="veh57" type="veh_passenger" depart="106.84" departLane="best" from="-144883328#0" to="-736610262"/>
    <trip id="veh58" type="veh_passenger" depart="108.72" departLane="best" from="-267495035#2" to="736610259#0"/>
    <trip id="veh59" type="veh_passenger" depart="110.59" departLane="best" departSpeed="max" from="733481812#0" to="733481802"/>
    <trip id="veh60" type="veh_passenger" depart="112.47" departLane="best" departSpeed="max" from="-733481811" to="-291537458#1"/>
    <trip id="veh61" type="veh_passenger" depart="114.34" departLane="best" departSpeed="max" from="733481812#0" to="736610264#0"/>
    <trip id="veh62" type="veh_passenger" depart="116.22" departLane="best" from="-291540563#4" to="291537488#5"/>
    <trip id="veh63" type="veh_passenger" depart="118.09" departLane="best" from="-291540553#3" to="321892729#1"/>
    <trip id="veh64" type="veh_passenger" depart="119.97" departLane="best" from="291703439#2" to="-291701891"/>
    <trip id="veh65" type="veh_passenger" depart="121.84" departLane="best" from="267502633#2" to="291697484#0"/>
    <trip id="veh66" type="veh_passenger" depart="123.71" departLane="best" from="-55874453#3" to="733481813#0"/>
    <trip id="veh67" type="veh_passenger" depart="125.59" departLane="best" departSpeed="max" from="144883328#0" to="-291703417#2"/>
    <trip id="veh68" type="veh_passenger" depart="127.46" departLane="best" from="-291703366#5" to="-736610256#0"/>
    <trip id="veh69" type="veh_passenger" depart="129.34" departLane="best" from="956560876" to="291701900"/>
    <trip id="veh70" type="veh_passenger" depart="131.21" departLane="best" from="267495027#1" to="291540565"/>
    <trip id="veh71" type="veh_passenger" depart="133.09" departLane="best" from="-291700237" to="-291703439#2"/>
    <trip id="veh72" type="veh_passenger" depart="134.96" departLane="best" from="-736610248#1" to="291699397#0"/>
    <trip id="veh73" type="veh_passenger" depart="136.84" departLane="best" from="-291703415#1" to="-291703422"/>
    <trip id="veh74" type="veh_passenger" depart="138.71" departLane="best" from="-291540553#4" to="291701891"/>
    <trip id="veh75" type="veh_passenger" depart="140.58" departLane="best" from="-291703415#0" to="736610253#2"/>
    <trip id="veh76" type="veh_passenger" depart="142.46" departLane="best" from="733481804#0" to="-291540553#0"/>
    <trip id="veh77" type="veh_passenger" depart="144.33" departLane="best" from="-291703417#4" to="291703356#2"/>
    <trip id="veh78" type="veh_passenger" depart="146.21" departLane="best" from="-291703410#1" to="-291701893#1"/>
    <trip id="veh79" type="veh_passenger" depart="148.08" departLane="best" departSpeed="max" from="736610266#0" to="291698500#1"/>
    <trip id="veh80" type="veh_passenger" depart="149.96" departLane="best" from="321892743" to="-291703410#2"/>
    <trip id="veh81" type="veh_passenger" depart="151.83" departLane="best" departSpeed="max" from="-291697485#1" to="267502634#0"/>
    <trip id="veh82" type="veh_passenger" depart="153.71" departLane="best" departSpeed="max" from="144883328#0" to="291537470#4"/>
    <trip id="veh83" type="veh_passenger" depart="155.58" departLane="best" from="291703410#1" to="291703357#2"/>
    <trip id="veh84" type="veh_passenger" depart="157.45" departLane="best" from="-936779325" to="-736610266#0"/>
    <trip id="veh85" type="veh_passenger" depart="159.33" departLane="best" from="733481804#3" to="-55874453#0"/>
    <trip id="veh86" type="veh_passenger" depart="161.20" departLane="best" from="-291703362" to="291537458#0"/>
    <trip id="veh87" type="veh_passenger" depart="163.08" departLane="best" departSpeed="max" from="144883328#0" to="-733481809"/>
    <trip id="veh88" type="veh_passenger" depart="164.95" departLane="best" from="-291703440#0" to="736610256#0"/>
    <trip id="veh89" type="veh_passenger" depart="166.83" departLane="best" from="267495029#2" to="733481811"/>
    <trip id="veh90" type="veh_passenger" depart="168.70" departLane="best" from="958175133#1" to="733481804#2"/>
    <trip id="veh91" type="veh_passenger" depart="170.58" departLane="best" from="956469668" to="736610257#0"/>
    <trip id="veh92" type="veh_passenger" depart="172.45" departLane="best" from="687856970#3" to="-291703357#3"/>
    <trip id="veh93" type="veh_passenger" depart="174.32" departLane="best" from="-936779324" to="-291537458#1"/>
    <trip id="veh94" type="veh_passenger" depart="176.20" departLane="best" departSpeed="max" from="-736610260" to="956533493"/>
    <trip id="veh95" type="veh_passenger" depart="178.07" departLane="best" from="-561043342#0" to="321892734"/>
    <trip id="veh96" type="veh_passenger" depart="179.95" departLane="best" from="267495035#2" to="267502633#0"/>
    <trip id="veh97" type="veh_passenger" depart="181.82" departLane="best" from="936779325" to="956560876"/>
    <trip id="veh98" type="veh_passenger" depart="183.70" departLane="best" from="291540563#3" to="291703410#3"/>
    <trip id="veh99" type="veh_passenger" depart="185.57" departLane="best" from="-291701896" to="-736610248#1"/>
    <trip id="veh100" type="veh_passenger" depart="187.45" departLane="best" from="956469668" to="291698503"/>
    <trip id="veh101" type="veh_passenger" depart="189.32" departLane="best" from="291540555" to="291703422"/>
    <trip id="veh102" type="veh_passenger" depart="191.19" departLane="best" from="-291537472#0" to="291699395#0"/>
    <trip id="veh103" type="veh_passenger" depart="193.07" departLane="best" from="291537462#0" to="733481810"/>
    <trip id="veh104" type="veh_passenger" depart="194.94" departLane="best" from="-291701898#1" to="918464655#1"/>
    <trip id="veh105" type="veh_passenger" depart="196.82" departLane="best" from="-291540556#2" to="-291703369#0"/>
    <trip id="veh106" type="veh_passenger" depart="198.69" departLane="best" from="291697486#0" to="291703357#3"/>
    <trip id="veh107" type="veh_passenger" depart="200.57" departLane="best" from="-291703417#2" to="-291700797#1"/>
    <trip id="veh108" type="veh_passenger" depart="202.44" departLane="best" from="736610252#0" to="-55874453#0"/>
    <trip id="veh109" type="veh_passenger" depart="204.32" departLane="best" from="291697486#0" to="291700795"/>
    <trip id="veh110" type="veh_passenger" depart="206.19" departLane="best" departSpeed="max" from="144883328#0" to="291699395#0"/>
    <trip id="veh111" type="veh_passenger" depart="208.06" departLane="best" from="291537485#0" to="736610259#3"/>
    <trip id="veh112" type="veh_passenger" depart="209.94" departLane="best" from="-291703369#1" to="291703410#2"/>
    <trip id="veh113" type="veh_passenger" depart="211.81" departLane="best" from="-291703417#4" to="267495029#4"/>
    <trip id="veh114" type="veh_passenger" depart="213.69" departLane="best" from="291701894#4" to="-736610253#0"/>
    <trip id="veh115" type="veh_passenger" depart="215.56" departLane="best" from="-733481813#0" to="291703439#1"/>
    <trip id="veh116" type="veh_passenger" depart="217.44" departLane="best" from="-291540553#5" to="291537458#3"/>
    <trip id="veh117" type="veh_passenger" depart="219.31" departLane="best" from="-561043342#0" to="736610259#3"/>
    <trip id="veh118" type="veh_passenger" depart="221.19" departLane="best" departSpeed="max" from="733481812#0" to="733481813#1"/>
    <trip id="veh119" type="veh_passenger" depart="223.06" departLane="best" departSpeed="max" from="631671455" to="291703369#0"/>
    <trip id="veh120" type="veh_passenger" depart="224.94" departLane="best" from="291699395#0" to="956556978"/>
    <trip id="veh121" type="veh_passenger" depart="226.81" departLane="best" from="291701889#0" to="-144883328#1"/>
    <trip id="veh122" type="veh_passenger" depart="228.68" departLane="best" departSpeed="max" from="55874453#0" to="-736610252#1"/>
    <trip id="veh123" type="veh_passenger" depart="230.56" departLane="best" from="291701893#3" to="736610259#3"/>
    <trip id="veh124" type="veh_passenger" depart="232.43" departLane="best" from="-291701889#0" to="-291700242"/>
    <trip id="veh125" type="veh_passenger" depart="234.31" departLane="best" departSpeed="max" from="-561043342#1" to="291700240#0"/>
    <trip id="veh126" type="veh_passenger" depart="236.18" departLane="best" from="291700241#1" to="-631673119"/>
    <trip id="veh127" type="veh_passenger" depart="238.06" departLane="best" from="267502636#0" to="736610253#2"/>
    <trip id="veh128" type="veh_passenger" depart="239.93" departLane="best" departSpeed="max" from="144883328#0" to="-733481809"/>
    <trip id="veh129" type="veh_passenger" depart="241.81" departLane="best" from="-179019720#0" to="321892732#0"/>
    <trip id="veh130" type="veh_passenger" depart="243.68" departLane="best" from="291700244#0" to="-631671455"/>
    <trip id="veh131" type="veh_passenger" depart="245.55" departLane="best" from="291703414" to="291697485#0"/>
    <trip id="veh132" type="veh_passenger" depart="247.43" departLane="best" from="-291540555" to="736610245#0"/>
    <trip id="veh133" type="veh_passenger" depart="249.30" departLane="best" from="736610256#0" to="291684780#5"/>
    <trip id="veh134" type="veh_passenger" depart="251.18" departLane="best" departSpeed="max" from="631671455" to="291699394"/>
    <trip id="veh135" type="veh_passenger" depart="253.05" departLane="best" departSpeed="max" from="-733481811" to="736610248#2"/>
    <trip id="veh136" type="veh_passenger" depart="254.93" departLane="best" from="321892733#0" to="733481811"/>
    <trip id="veh137" type="veh_passenger" depart="256.80" departLane="best" departSpeed="max" from="736610253#0" to="-291703417#1"/>
    <trip id="veh138" type="veh_passenger" depart="258.68" departLane="best" from="-291703440#0" to="-291699397#0"/>
    <trip id="veh139" type="veh_passenger" depart="260.55" departLane="best" from="321892729#1" to="736610245#1"/>
    <trip id="veh140" type="veh_passenger" depart="262.42" departLane="best" from="-956469667" to="291700797#0"/>
    <trip id="veh141" type="veh_passenger" depart="264.30" departLane="best" from="-291701896" to="736610259#1"/>
    <trip id="veh142" type="veh_passenger" depart="266.17" departLane="best" from="733481806#0" to="956469668"/>
    <trip id="veh143" type="veh_passenger" depart="268.05" departLane="best" from="321892744#1" to="733481814#0"/>
    <trip id="veh144" type="veh_passenger" depart="269.92" departLane="best" from="-267502626#1" to="291703417#2"/>
    <trip id="veh145" type="veh_passenger" depart="271.80" departLane="best" departSpeed="max" from="-736610247" to="736610259#1"/>
    <trip id="veh146" type="veh_passenger" depart="273.67" departLane="best" from="321892733#4" to="733481811"/>
    <trip id="veh147" type="veh_passenger" depart="275.55" departLane="best" from="321892744#1" to="-631673121"/>
    <trip id="veh148" type="veh_passenger" depart="277.42" departLane="best" from="321892730" to="-291700234#1"/>
    <trip id="veh149" type="veh_passenger" depart="279.29" departLane="best" departSpeed="max" from="733481809" to="733481811"/>
    <trip id="veh150" type="veh_passenger" depart="281.17" departLane="best" from="-291703412#2" to="631673119"/>
    <trip id="veh151" type="veh_passenger" depart="283.04" departLane="best" from="267502626#1" to="-736610253#0"/>
    <trip id="veh152" type="veh_passenger" depart="284.92" departLane="best" from="321892732#3" to="-291703440#1"/>
    <trip id="veh153" type="veh_passenger" depart="286.79" departLane="best" from="-267495036#2" to="-291703411"/>
    <trip id="veh154" type="veh_passenger" depart="288.67" departLane="best" from="-736610246" to="733481811"/>
    <trip id="veh155" type="veh_passenger" depart="290.54" departLane="best" from="291700430#0" to="267495034#0"/>
    <trip id="veh156" type="veh_passenger" depart="292.42" departLane="best" departSpeed="max" from="956522410" to="291684778#2"/>
    <trip id="veh157" type="veh_passenger" depart="294.29" departLane="best" departSpeed="max" from="736610266#0" to="-291700242"/>
    <trip id="veh158" type="veh_passenger" depart="296.16" departLane="best" from="956481329#1" to="-291703366#1"/>
    <trip id="veh159" type="veh_passenger" depart="298.04" departLane="best" from="956465294#2" to="-631673121"/>
    <trip id="veh160" type="veh_passenger" depart="299.91" departLane="best" from="-291699389" to="267502634#2"/>
    <trip id="veh161" type="veh_passenger" depart="301.79" departLane="best" from="291703410#1" to="-736610256#1"/>
    <trip id="veh162" type="veh_passenger" depart="303.66" departLane="best" from="291698500#1" to="291540563#0"/>
    <trip id="veh163" type="veh_passenger" depart="305.54" departLane="best" departSpeed="max" from="-736610261" to="291698503"/>
    <trip id="veh164" type="veh_passenger" depart="307.41" departLane="best" from="-321892744#0" to="291703369#2"/>
    <trip id="veh165" type="veh_passenger" depart="309.29" departLane="best" from="291703414" to="291703357#0"/>
    <trip id="veh166" type="veh_passenger" depart="311.16" departLane="best" departSpeed="max" from="-736610255#2" to="-291540552#1"/>
    <trip id="veh167" type="veh_passenger" depart="313.03" departLane="best" from="291701893#3" to="-736610263"/>
    <trip id="veh168" type="veh_passenger" depart="314.91" departLane="best" departSpeed="max" from="-733481812#1" to="733481807#1"/>
    <trip id="veh169" type="veh_passenger" depart="316.78" departLane="best" from="291703366#5" to="-736610253#0"/>
    <trip id="veh170" type="veh_passenger" depart="318.66" departLane="best" departSpeed="max" from="-733481812#1" to="267495036#1"/>
    <trip id="veh171" type="veh_passenger" depart="320.53" departLane="best" from="-936779325" to="-736610248#1"/>
    <trip id="veh172" type="veh_passenger" depart="322.41" departLane="best" from="-291700795" to="267502631#1"/>
    <trip id="veh173" type="veh_passenger" depart="324.28" departLane="best" from="736610266#1" to="291703359"/>
    <trip id="veh174" type="veh_passenger" depart="326.16" departLane="best" from="736610255#1" to="291700430#3"/>
    <trip id="veh175" type="veh_passenger" depart="328.03" departLane="best" from="-144883328#0" to="-733481812#0"/>
    <trip id="veh176" type="veh_passenger" depart="329.90" departLane="best" departSpeed="max" from="179019720#0" to="291699389"/>
    <trip id="veh177" type="veh_passenger" depart="331.78" departLane="best" from="291701889#2" to="291537470#0"/>
    <trip id="veh178" type="veh_passenger" depart="333.65" departLane="best" from="267495028#1" to="-291703417#4"/>
    <trip id="veh179" type="veh_passenger" depart="335.53" departLane="best" from="321892733#0" to="-291703359"/>
    <trip id="veh180" type="veh_passenger" depart="337.40" departLane="best" from="291700241#0" to="-736610263"/>
    <trip id="veh181" type="veh_passenger" depart="339.28" departLane="best" departSpeed="max" from="55874453#0" to="291703439#1"/>
    <trip id="veh182" type="veh_passenger" depart="341.15" departLane="best" from="291701894#4" to="-291703439#2"/>
    <trip id="veh183" type="veh_passenger" depart="343.03" departLane="best" from="-291703366#4" to="-267495031#1"/>
    <trip id="veh184" type="veh_passenger" depart="344.90" departLane="best" from="-291703422" to="291537472#1"/>
    <trip id="veh185" type="veh_passenger" depart="346.77" departLane="best" from="687856972#0" to="-291540553#1"/>
    <trip id="veh186" type="veh_passenger" depart="348.65" departLane="best" from="-958175133#0" to="291701891"/>
    <trip id="veh187" type="veh_passenger" depart="350.52" departLane="best" from="-291703366#0" to="291703366#3"/>
    <trip id="veh188" type="veh_passenger" depart="352.40" departLane="best" from="267502636#5" to="-55874453#0"/>
    <trip id="veh189" type="veh_passenger" depart="354.27" departLane="best" from="291701890" to="-144883328#0"/>
    <trip id="veh190" type="veh_passenger" depart="356.15" departLane="best" from="291703417#3" to="321892731#1"/>
    <trip id="veh191" type="veh_passenger" depart="358.02" departLane="best" departSpeed="max" from="-291698503" to="267502633#2"/>
    <trip id="veh192" type="veh_passenger" depart="359.90" departLane="best" from="-291703356#1" to="754401823"/>
    <trip id="veh193" type="veh_passenger" depart="361.77" departLane="best" from="291537472#2" to="-267502636#1"/>
    <trip id="veh194" type="veh_passenger" depart="363.65" departLane="best" from="-291703439#2" to="733481807#1"/>
    <trip id="veh195" type="veh_passenger" depart="365.52" departLane="best" from="267495036#0" to="561043342#0"/>
    <trip id="veh196" type="veh_passenger" depart="367.39" departLane="best" from="291701894#1" to="956556978"/>
    <trip id="veh197" type="veh_passenger" depart="369.27" departLane="best" from="291697486#1" to="736610265#0"/>
    <trip id="veh198" type="veh_passenger" depart="371.14" departLane="best" from="736610252#1" to="291700244#4"/>
    <trip id="veh199" type="veh_passenger" depart="373.02" departLane="best" from="291703366#5" to="291540556#2"/>
    <trip id="veh200" type="veh_passenger" depart="374.89" departLane="best" departSpeed="max" from="631671455" to="291685865#1"/>
    <trip id="veh201" type="veh_passenger" depart="376.77" departLane="best" departSpeed="max" from="736610253#0" to="291703419#1"/>
    <trip id="veh202" type="veh_passenger" depart="378.64" departLane="best" from="267502633#2" to="-631671455"/>
    <trip id="veh203" type="veh_passenger" depart="380.52" departLane="best" from="-291703439#1" to="291701893#4"/>
    <trip id="veh204" type="veh_passenger" depart="382.39" departLane="best" from="291703439#2" to="291684768#1"/>
    <trip id="veh205" type="veh_passenger" depart="384.26" departLane="best" from="-291540556#0" to="-733481812#0"/>
    <trip id="veh206" type="veh_passenger" depart="386.14" departLane="best" departSpeed="max" from="-561043342#1" to="-736610259#1"/>
    <trip id="veh207" type="veh_passenger" depart="388.01" departLane="best" from="291540553#5" to="-291701894#1"/>
    <trip id="veh208" type="veh_passenger" depart="389.89" departLane="best" from="-291703416" to="291703366#1"/>
    <trip id="veh209" type="veh_passenger" depart="391.76" departLane="best" from="291703363#0" to="-291537472#2"/>
    <trip id="veh210" type="veh_passenger" depart="393.64" departLane="best" from="-956469667" to="291684780#1"/>
    <trip id="veh211" type="veh_passenger" depart="395.51" departLane="best" from="-958175133#1" to="-291703416"/>
    <trip id="veh212" type="veh_passenger" depart="397.39" departLane="best" departSpeed="max" from="144883328#0" to="736610253#1"/>
    <trip id="veh213" type="veh_passenger" depart="399.26" departLane="best" from="291684780#1" to="291703366#2"/>
    <trip id="veh214" type="veh_passenger" depart="401.13" departLane="best" from="733481802" to="321892729#6"/>
    <trip id="veh215" type="veh_passenger" depart="403.01" departLane="best" departSpeed="max" from="-736610260" to="-144883328#0"/>
    <trip id="veh216" type="veh_passenger" depart="404.88" departLane="best" departSpeed="max" from="-736610253#2" to="291703439#2"/>
    <trip id="veh217" type="veh_passenger" depart="406.76" departLane="best" from="687856975#2" to="736610266#1"/>
    <trip id="veh218" type="veh_passenger" depart="408.63" departLane="best" departSpeed="max" from="144883328#0" to="291703421#1"/>
    <trip id="veh219" type="veh_passenger" depart="410.51" departLane="best" from="291540556#2" to="291700239#1"/>
    <trip id="veh220" type="veh_passenger" depart="412.38" departLane="best" from="179019720#3" to="-267495035#1"/>
    <trip id="veh221" type="veh_passenger" depart="414.26" departLane="best" from="-736610248#0" to="291703360#0"/>
    <trip id="veh222" type="veh_passenger" depart="416.13" departLane="best" from="-936779326" to="-291703357#2"/>
    <trip id="veh223" type="veh_passenger" depart="418.00" departLane="best" from="267502631#0" to="-291701890"/>
    <trip id="veh224" type="veh_passenger" depart="419.88" departLane="best" from="291700234#1" to="-267495034#1"/>
    <trip id="veh225" type="veh_passenger" depart="421.75" departLane="best" from="-736610266#1" to="291697487#1"/>
    <trip id="veh226" type="veh_passenger" depart="423.63" departLane="best" from="-267502629#0" to="291701894#3"/>
    <trip id="veh227" type="veh_passenger" depart="425.50" departLane="best" from="-291701889#2" to="291537462#2"/>
    <trip id="veh228" type="veh_passenger" depart="427.38" departLane="best" departSpeed="max" from="-291537458#3" to="144883328#0"/>
    <trip id="veh229" type="veh_passenger" depart="429.25" departLane="best" departSpeed="max" from="-291703369#2" to="-736610262"/>
    <trip id="veh230" type="veh_passenger" depart="431.13" departLane="best" from="291703422" to="144883328#0"/>
    <trip id="veh231" type="veh_passenger" depart="433.00" departLane="best" from="-321892730" to="-291540556#0"/>
    <trip id="veh232" type="veh_passenger" depart="434.87" departLane="best" from="-267495035#2" to="291684778#4"/>
    <trip id="veh233" type="veh_passenger" depart="436.75" departLane="best" from="958175133#1" to="-918464655#0"/>
    <trip id="veh234" type="veh_passenger" depart="438.62" departLane="best" from="291701887#0" to="321892733#4"/>
    <trip id="veh235" type="veh_passenger" depart="440.50" departLane="best" from="291701887#1" to="291703440#0"/>
    <trip id="veh236" type="veh_passenger" depart="442.37" departLane="best" departSpeed="max" from="918464655#0" to="-291703413#0"/>
    <trip id="veh237" type="veh_passenger" depart="444.25" departLane="best" from="-267495036#0" to="-291701902#1"/>
    <trip id="veh238" type="veh_passenger" depart="446.12" departLane="best" from="-291700242" to="291703356#2"/>
    <trip id="veh239" type="veh_passenger" depart="448.00" departLane="best" from="291684768#4" to="-291703421#1"/>
    <trip id="veh240" type="veh_passenger" depart="449.87" departLane="best" from="291703360#0" to="321892730"/>
    <trip id="veh241" type="veh_passenger" depart="451.74" departLane="best" departSpeed="max" from="-291703354" to="291700241#1"/>
    <trip id="veh242" type="veh_passenger" depart="453.62" departLane="best" from="291703417#1" to="-291700241#1"/>
    <trip id="veh243" type="veh_passenger" depart="455.49" departLane="best" departSpeed="max" from="55874453#0" to="936779325"/>