<?xml version="1.0" encoding="UTF-8"?>

<!-- generated on 2021-12-17 22:26:38 by Eclipse SUMO polyconvert Version 1.11.0
<configuration xmlns:xsi="http://www.w3.org/2001/XMLSchema-instance" xsi:noNamespaceSchemaLocation="http://sumo.dlr.de/xsd/polyconvertConfiguration.xsd">

    <input>
        <net-file value="osm.net.xml"/>
        <osm-files value="osm_bbox.osm.xml"/>
        <osm.keep-full-type value="true"/>
        <type-file value="/usr/share/sumo/data/typemap/osmPolyconvert.typ.xml"/>
    </input>

    <output>
        <output-file value="osm.poly.xml"/>
    </output>

    <processing>
        <poi-layer-offset value="5"/>
    </processing>

    <report>
        <verbose value="true"/>
    </report>

</configuration>
-->

<additional xmlns:xsi="http://www.w3.org/2001/XMLSchema-instance" xsi:noNamespaceSchemaLocation="http://sumo.dlr.de/xsd/additional_file.xsd">
    <location netOffset="-414566.70,3062424.49" convBoundary="0.00,-0.00,11320.07,16053.44" origBoundary="-51.866130,-27.683722,-51.751411,-27.538649" projParameter="+proj=utm +zone=22 +ellps=WGS84 +datum=WGS84 +units=m +no_defs"/>

    <poly id="291685868" type="landuse.cemetery" color="194,194,130" fill="1" layer="-3.00" shape="6923.006867,5871.737418 6934.073312,5774.289127 6943.264119,5765.829346 7007.768750,5758.490016 6994.402430,5889.910831 6923.006867,5871.737418"/>
    <poly id="291700232" type="leisure.pitch" color="207,245,201" fill="1" layer="-2.00" shape="6268.746542,5417.748962 6336.667491,5431.084837 6354.743110,5336.706682 6285.755102,5325.202910 6268.746542,5417.748962"/>
    <poly id="291700232#1" type="sport.soccer" color="79,230,125" fill="1" layer="-2.00" shape="6268.746542,5417.748962 6336.667491,5431.084837 6354.743110,5336.706682 6285.755102,5325.202910 6268.746542,5417.748962"/>
    <poly id="470639129" type="amenity.fuel" color="237,199,199" fill="1" layer="-1.00" shape="6071.252972,4919.769940 6074.216697,4902.496441 6092.802965,4905.652875 6089.839193,4922.937456 6071.252972,4919.769940"/>
    <poly id="470639129#1" type="building.roof" color="255,230,230" fill="1" layer="-1.00" shape="6071.252972,4919.769940 6074.216697,4902.496441 6092.802965,4905.652875 6089.839193,4922.937456 6071.252972,4919.769940"/>
    <poly id="470639132" type="amenity.fuel" color="237,199,199" fill="1" layer="-1.00" shape="5917.606000,5781.159342 5919.568761,5769.163572 5932.943401,5771.333494 5930.980652,5783.329265 5917.606000,5781.159342"/>
    <poly id="470639132#1" type="building.roof" color="255,230,230" fill="1" layer="-1.00" shape="5917.606000,5781.159342 5919.568761,5769.163572 5932.943401,5771.333494 5930.980652,5783.329265 5917.606000,5781.159342"/>
    <poly id="470639134" type="amenity.fuel" color="237,199,199" fill="1" layer="-1.00" shape="5914.258106,5899.594774 5902.779981,5892.540727 5905.759164,5879.011748 5917.858412,5886.136313 5917.292031,5888.259598 5914.258106,5899.594774"/>
    <poly id="470639134#1" type="building.roof" color="255,230,230" fill="1" layer="-1.00" shape="5914.258106,5899.594774 5902.779981,5892.540727 5905.759164,5879.011748 5917.858412,5886.136313 5917.292031,5888.259598 5914.258106,5899.594774"/>
    <poly id="470639135" type="building.roof" color="255,230,230" fill="1" layer="-1.00" shape="6371.337117,6476.043391 6364.804517,6463.970315 6374.666278,6458.694680 6381.198812,6470.778828 6371.337117,6476.043391"/>
    <poly id="521397097" type="amenity.kindergarten" color="237,199,199" fill="1" layer="-2.00" shape="6674.810739,5473.853763 6690.599066,5406.302417 6729.985205,5412.339585 6714.717894,5481.744368 6674.810739,5473.853763"/>
    <poly id="561043341" type="natural.water" color="181,209,209" fill="1" layer="-4.00" shape="7157.209048,5882.383187 7145.922958,5866.834749 7145.802176,5856.453900 7154.013588,5848.386479 7169.223979,5842.823313 7181.881970,5852.154710 7182.928093,5865.942441 7189.511014,5874.858171 7181.882796,5881.223350 7169.348188,5883.402774 7157.209048,5882.383187"/>
    <poly id="591919086" type="building.yes" color="255,230,230" fill="1" layer="-1.00" shape="5917.292031,5888.259598 5926.600798,5893.604543 5924.673841,5904.647836 5914.258106,5899.594774 5917.292031,5888.259598"/>
    <poly id="591919087" type="building.yes" color="255,230,230" fill="1" layer="-1.00" shape="5930.980652,5783.329265 5932.943401,5771.333494 5933.385489,5768.600107 5946.533428,5770.735300 5944.118812,5785.453319 5930.980652,5783.329265"/>
    <poly id="591919088" type="building.yes" color="255,230,230" fill="1" layer="-1.00" shape="6093.377066,4902.333205 6092.802965,4905.652875 6089.839193,4922.937456 6088.649505,4929.886710 6098.297453,4931.522619 6103.034857,4903.969175 6093.377066,4902.333205"/>
    <poly id="665377361" type="waterway.stream" color="181,209,209" fill="0" layer="-4.00" shape="5821.238139,6202.901920 5799.968593,6217.496747 5759.598636,6239.355746 5741.512826,6252.918872 5672.321407,6312.487036 5658.447386,6329.245916 5639.291762,6344.917797 5610.439560,6385.795125 5579.514108,6419.291922 5560.358241,6434.963684 5544.358682,6453.813337 5530.449838,6475.833911 5521.832362,6498.952647 5501.445022,6539.885216 5486.342171,6582.957233 5436.310856,6625.811165 5416.123482,6636.202803 5401.186095,6654.006838 5388.197142,6698.156109 5376.429847,6717.033341 5347.610475,6752.648235 5325.304392,6764.078225 5299.890302,6764.963624 5283.896834,6782.760581 5256.125802,6819.445651 5245.407029,6839.382071 5238.900373,6862.503425 5244.804511,6930.993367 5240.426143,6953.076305 5238.878578,7027.842780 5239.788935,7049.960499 5254.986510,7153.263283 5258.807028,7217.529837 5258.391587,7280.716123 5241.040934,7342.727558 5237.690490,7369.037972 5233.979933,7450.104652 5191.565209,7621.490579 5172.434696,7632.952301 5126.843365,7642.123884 5064.263630,7659.613733 5043.000457,7674.218437 5020.862450,7703.263074 5011.970106,7814.195102 5000.662362,7852.926831 4995.907832,7885.553469 4960.762200,7919.209295 4959.623557,7954.186159 4948.880046,7977.656058 4946.585586,8005.335958 4952.586161,8059.081771 4943.706570,8120.107355 4928.745830,8141.079011 4909.607315,8153.592704 4860.867048,8159.585331 4838.648347,8157.333730 4816.401832,8159.291550 4795.239013,8157.046847 4770.877828,8157.938193 4749.641284,8168.332943 4710.298072,8193.341616 4696.399683,8213.267619 4687.793508,8234.269972 4683.413673,8256.363786 4664.710594,8282.040676 4654.592279,8291.445386 4649.240177,8300.892730 4646.965064,8324.052881 4649.428389,8351.454058 4644.588854,8362.477873 4624.850003,8386.563689 4614.648392,8407.034758 4609.275294,8419.639182 4601.108033,8453.295483 4586.665316,8476.363919 4583.309712,8503.205878 4583.716993,8522.163067 4594.082949,8554.358010 4599.660451,8592.835686 4608.071728,8601.310705 4621.670657,8626.680820 4624.765185,8637.757177 4624.991102,8684.109090 4613.568787,8730.904514 4608.206678,8740.340697 4602.321457,8749.784490 4581.701033,8745.958886 4561.656001,8734.238435 4549.997178,8736.277053 4501.964515,8794.406160 4482.256731,8812.177499 4472.225095,8808.433038 4439.531696,8788.729826 4426.305000,8787.589606 4415.193048,8787.515827 4393.436838,8794.217560 4325.578077,8809.032176 4295.287973,8825.691538 4272.405687,8842.909693 4244.503838,8899.598637 4240.639036,8922.748144 4240.516382,8941.181157 4244.002777,8974.903698 4247.106861,8985.991294 4264.388810,9014.011799 4298.576850,9047.949579 4304.869343,9057.463122 4313.242166,9071.742961 4327.273096,9110.808693 4342.471462,9134.605577 4350.879420,9143.612483 4413.058752,9187.739317 4428.846186,9203.120704 4469.286615,9251.312556 4475.579276,9260.837080 4501.495885,9344.215912 4511.952632,9364.292136 4529.807006,9386.533292 4550.856742,9406.159030 4554.996290,9420.410624 4548.497547,9441.958590 4548.110131,9500.414658 4542.698127,9518.812591 4527.170771,9544.510343 4501.600643,9568.036666 4475.963993,9601.577014 4459.348936,9632.008857 4415.532256,9692.292624 4388.816819,9712.831136 4365.456826,9751.227470 4313.782915,9817.451905 4290.814456,9844.396047 4270.447222,9867.535531 4246.379473,9889.077294 4241.544608,9900.743512 4231.957537,9910.162515 4203.765543,9929.992904 4163.777421,9970.803996 4154.120090,9990.757660 4139.141775,10013.833115 4141.713183,10024.906092 4151.201559,10031.815484 4182.407063,10036.764616 4194.021559,10041.583304 4215.125162,10051.727171 4272.088720,10085.284657 4275.930607,10144.300570 4279.038592,10154.856413 4286.927606,10163.339216 4307.508404,10173.479437 4373.098291,10183.397901 4462.552045,10187.680520 4475.766309,10190.925388 4513.774672,10207.506350 4523.821435,10209.146016 4544.405946,10218.765188 4547.423466,10243.012756 4539.871717,10264.033064 4530.214870,10283.975931 4487.483830,10339.525779 4467.096756,10380.478874 4467.866469,10423.666001 4476.209038,10442.686848 4490.900928,10462.791115 4511.809355,10504.017985 4515.896933,10526.167825 4534.523074,10591.596007 4543.931830,10610.623862 4549.047714,10636.990133 4569.956655,10678.216882 4567.544482,10723.498797 4554.699304,10743.420565 4540.818824,10760.189313 4530.088597,10781.188555 4519.207669,10826.414346 4521.173374,10848.539033 4545.107314,10912.960993 4557.377740,10978.358060 4563.434240,11023.696043 4584.183551,11089.149213 4627.031834,11175.807816 4688.989409,11255.225740 4700.518200,11273.215043 4734.174014,11308.200158 4764.609918,11349.489428 4788.699224,11390.736709 4805.299422,11443.510978 4825.144663,11484.730155 4830.306182,11505.834514 4819.589745,11524.729272 4796.257176,11528.784881 4747.545137,11528.463190 4725.257638,11535.693869 4709.278182,11550.333050 4665.856768,11550.046000 4642.540850,11553.060100 4606.344183,11581.257783 4574.353980,11613.703918 4561.524697,11632.584474 4562.434411,11654.713211 4577.141832,11672.723659 4628.726272,11719.415244 4650.860834,11735.369911 4695.792095,11747.775193 4729.560571,11765.911416 4805.371871,11833.311879 4863.220973,11894.267867 4911.576896,11948.835474 4930.024454,11962.660491 4935.256370,11971.645958 4941.474523,11992.757207 4951.394367,12013.892839 4979.779355,12046.216958 4985.004416,12056.254761 4979.429043,12099.410995 4958.075461,12125.081989 4937.306877,12142.858219 4879.901136,12174.617001 4837.990351,12185.928136 4765.234366,12217.574042 4737.058944,12234.248630 4718.949264,12249.937252 4667.889175,12283.310057 4629.135496,12297.798581 4595.661683,12315.490217 4550.526223,12333.625233 4538.323961,12336.712745 4527.690153,12342.956774 4507.436155,12363.372263 4499.963439,12372.273761 4495.655294,12383.312110 4500.350510,12392.825949 4509.311435,12399.199742 4549.051472,12396.837407 4560.696317,12397.435155 4571.787138,12401.197522 4580.228364,12407.047158 4590.196770,12420.805479 4593.828791,12431.375729 4592.605293,12456.647542 4585.644683,12468.720776 4537.089395,12523.179921 4514.256414,12531.990802 4449.120518,12532.079932 4431.633931,12534.068835 4396.584452,12548.060540 4377.975146,12560.056402 4366.783524,12569.985560 4359.791170,12586.799831 4326.192545,12701.942794 4311.914503,12778.230583 4311.289893,12793.502949 4290.348424,12835.515566 4298.228804,12845.571291 4341.953738,12881.155905 4379.991382,12894.579947 4393.706694,12903.101234 4472.660968,12975.265706 4504.853087,12993.391983 4532.755051,13018.335949 4549.587154,13034.787343 4570.566764,13065.999833 4586.366550,13080.328453 4609.479751,13108.408844 4623.035274,13141.156280 4619.605682,13179.064503 4603.401620,13225.839231 4586.241561,13258.915270 4575.997114,13286.775012 4564.919836,13359.926968 4554.613129,13395.684858 4488.851668,13489.545045 4464.378008,13507.295997 4451.536802,13526.176378 4381.204538,13589.984490 4363.071503,13608.829694 4336.321033,13649.751451 4302.714463,13685.343469 4298.405719,13696.381745 4284.507706,13715.254946 4273.794944,13734.681022 4264.859756,13803.105590 4267.884790,13826.311825 4278.846849,13851.143818 4327.232631,13902.046835 4336.191079,13908.952436 4356.795754,13916.467013 4378.502292,13917.131611 4411.275931,13926.831579 4489.916094,13968.451668 4538.916526,14007.238601 4557.911087,14017.899388 4581.594077,14040.710415 4613.653451,14079.373906 4636.709464,14116.415820 4673.513954,14157.226380 4696.555889,14197.945948 4700.718359,14209.029210 4695.827959,14227.441675 4618.751518,14268.552270 4606.553794,14272.160595 4570.949047,14288.785795 4563.482215,14296.634979 4542.730351,14311.253519 4510.161007,14351.073670 4498.388769,14369.440516 4475.346559,14409.334714 4464.083008,14431.382773 4465.655116,14434.029731 4455.465951,14451.875280 4455.925813,14462.945184 4460.572461,14481.409639 4468.987780,14489.895670 4517.488523,14523.937935 4608.299026,14568.274173 4624.080594,14584.175600 4629.828623,14597.385241 4614.783165,14629.954627 4584.238980,14682.971096 4582.043060,14694.023428 4543.236381,14715.368761 4520.953490,14721.015107 4503.366154,14737.759340 4493.259926,14744.538616 4464.458055,14774.380225 4439.494035,14785.281770 4420.923971,14789.368383 4408.213423,14789.815918 4355.887735,14772.608511 4334.225781,14763.502830 4314.117856,14761.264660 4301.439420,14755.386794 4238.000177,14737.573397 4158.225786,14707.011182 4140.272912,14698.461540 4120.249162,14683.583674 4117.140013,14673.027878 4117.276652,14652.479204 4105.672391,14643.971721 4084.452251,14650.145005 4075.398753,14657.462686 4049.361278,14669.408703 4012.795712,14672.854257 3984.066502,14691.628386 3936.292872,14707.118334 3916.072708,14721.739392 3895.874232,14731.619200 3885.760639,14739.450340 3834.856696,14747.541113 3801.944077,14758.388334 3772.256408,14762.399752 3742.593284,14762.733383 3731.448393,14765.295484 3701.149365,14782.474331 3699.998493,14795.117661 3716.849027,14810.506761 3749.077397,14822.309601 3775.996071,14836.713454 3806.051834,14857.463693 3852.945096,14894.134412 3880.221559,14934.883765 3900.701303,14961.363662 3907.449640,14981.437570 3907.663232,15029.384332 3911.207814,15053.114755 3911.351143,15111.607243 3898.447807,15139.437646 3892.401021,15172.597925 3881.156801,15191.488395 3864.624397,15208.238781 3858.195464,15218.731028 3847.898658,15253.967751 3842.290690,15299.770864 3855.326997,15331.994918 3870.578851,15347.384183 3882.503196,15386.458031 3883.380611,15413.327880 3881.622313,15438.607090 3877.305612,15450.697574 3861.797070,15473.780290 3838.312482,15499.446338 3824.477911,15509.889170 3781.937087,15533.843824 3748.011524,15537.838029 3705.819785,15549.409619 3685.683228,15549.795735 3666.138977,15542.818946 3640.434555,15544.486045 3627.467884,15541.762790 3614.213842,15545.097233 3573.745935,15576.454032 3543.403414,15638.154508 3518.889494,15659.603459 3497.098766,15671.045062 3489.093651,15679.421760 3484.790580,15689.407399 3487.218025,15722.092518 3498.749545,15740.082790 3507.185599,15746.985455 3537.773598,15766.687432 3578.507411,15775.390353 3624.452804,15796.247252 3652.384232,15817.515312 3682.358448,15849.332074 3707.994015,15897.980393 3716.195203,15938.602571 3715.573314,15953.354227 3711.758463,15968.616296 3701.026033,15989.094175 3691.971336,15996.411589 3682.305283,16016.896577 3677.419917,16053.443274"/>
    <poly id="736610249" type="leisure.pitch" color="207,245,201" fill="1" layer="-2.00" shape="6059.875115,6259.250049 6090.384214,6262.162787 6094.679984,6217.634992 6064.161201,6214.711120 6059.875115,6259.250049"/>
    <poly id="736610249#1" type="sport.soccer" color="79,230,125" fill="1" layer="-2.00" shape="6059.875115,6259.250049 6090.384214,6262.162787 6094.679984,6217.634992 6064.161201,6214.711120 6059.875115,6259.250049"/>
    <poi id="415523167" type="population.5111" color="51,128,255" layer="4.00" x="6047.27" y="5655.58"/>
    <poi id="4648151541" type="amenity.townhall" color="237,199,199" layer="4.00" x="5947.15" y="5672.13"/>
    <poi id="4648151563" type="amenity.fuel" color="237,199,199" layer="4.00" x="6373.59" y="6467.08"/>
    <poi id="5650522689" type="amenity.bus_station" color="237,199,199" layer="4.00" x="5903.19" y="5647.71"/>
    <poi id="7415157443" type="man_made.tower" color="255,230,230" layer="4.00" x="6347.41" y="5723.72"/>
    <poi id="7415193983" type="man_made.tower" color="255,230,230" layer="4.00" x="6213.16" y="6811.61"/>
    <poi id="7415193984" type="man_made.tower" color="255,230,230" layer="4.00" x="6242.07" y="6783.17"/>
</additional>
