<?xml version="1.0" encoding="UTF-8"?>

<!-- generated on 2021-12-17 22:26:38 by Eclipse SUMO netconvert Version 1.11.0
<configuration xmlns:xsi="http://www.w3.org/2001/XMLSchema-instance" xsi:noNamespaceSchemaLocation="http://sumo.dlr.de/xsd/netconvertConfiguration.xsd">

    <input>
        <type-files value="/usr/share/sumo/data/typemap/osmNetconvert.typ.xml"/>
        <osm-files value="osm_bbox.osm.xml"/>
    </input>

    <output>
        <output-file value="osm.net.xml"/>
        <output.street-names value="true"/>
        <output.original-names value="true"/>
    </output>

    <projection>
        <proj.utm value="true"/>
    </projection>

    <processing>
        <geometry.remove value="true"/>
        <roundabouts.guess value="true"/>
    </processing>

    <tls_building>
        <tls.discard-simple value="true"/>
        <tls.join value="true"/>
        <tls.guess-signals value="true"/>
        <tls.default-type value="actuated"/>
    </tls_building>

    <ramp_guessing>
        <ramps.guess value="true"/>
    </ramp_guessing>

    <junctions>
        <junctions.join value="true"/>
        <junctions.corner-detail value="5"/>
    </junctions>

    <report>
        <verbose value="true"/>
        <aggregate-warnings value="5"/>
    </report>

</configuration>
-->

<net version="1.9" junctionCornerDetail="5" limitTurnSpeed="5.50" xmlns:xsi="http://www.w3.org/2001/XMLSchema-instance" xsi:noNamespaceSchemaLocation="http://sumo.dlr.de/xsd/net_file.xsd">

    <location netOffset="-414566.70,3062424.49" convBoundary="0.00,0.00,11320.07,13332.33" origBoundary="-51.866130,-27.683722,-51.751411,-27.538649" projParameter="+proj=utm +zone=22 +ellps=WGS84 +datum=WGS84 +units=m +no_defs"/>

    <type id="highway.bridleway" priority="1" numLanes="1" speed="2.78" allow="pedestrian" oneway="1" width="2.00"/>
    <type id="highway.bus_guideway" priority="1" numLanes="1" speed="27.78" allow="bus" oneway="1"/>
    <type id="highway.cycleway" priority="1" numLanes="1" speed="8.33" allow="bicycle" oneway="0" width="1.00"/>
    <type id="highway.footway" priority="1" numLanes="1" speed="2.78" allow="pedestrian" oneway="1" width="2.00"/>
    <type id="highway.ford" priority="1" numLanes="1" speed="2.78" allow="army" oneway="0"/>
    <type id="highway.living_street" priority="2" numLanes="1" speed="2.78" disallow="tram rail_urban rail rail_electric rail_fast ship" oneway="0"/>
    <type id="highway.motorway" priority="14" numLanes="2" speed="39.44" allow="private emergency authority army vip passenger hov taxi bus coach delivery truck trailer motorcycle evehicle custom1 custom2" oneway="1"/>
    <type id="highway.motorway_link" priority="9" numLanes="1" speed="22.22" allow="private emergency authority army vip passenger hov taxi bus coach delivery truck trailer motorcycle evehicle custom1 custom2" oneway="1"/>
    <type id="highway.path" priority="1" numLanes="1" speed="2.78" allow="pedestrian bicycle" oneway="0" width="2.00"/>
    <type id="highway.pedestrian" priority="1" numLanes="1" speed="2.78" allow="pedestrian" oneway="1" width="2.00"/>
    <type id="highway.primary" priority="12" numLanes="2" speed="27.78" disallow="tram rail_urban rail rail_electric rail_fast ship" oneway="0"/>
    <type id="highway.primary_link" priority="7" numLanes="1" speed="22.22" disallow="tram rail_urban rail rail_electric rail_fast ship" oneway="0"/>
    <type id="highway.raceway" priority="15" numLanes="2" speed="83.33" allow="vip" oneway="0"/>
    <type id="highway.residential" priority="3" numLanes="1" speed="13.89" disallow="tram rail_urban rail rail_electric rail_fast ship" oneway="0"/>
    <type id="highway.secondary" priority="11" numLanes="1" speed="27.78" disallow="tram rail_urban rail rail_electric rail_fast ship" oneway="0"/>
    <type id="highway.secondary_link" priority="6" numLanes="1" speed="22.22" disallow="tram rail_urban rail rail_electric rail_fast ship" oneway="0"/>
    <type id="highway.service" priority="1" numLanes="1" speed="5.56" allow="pedestrian delivery bicycle" oneway="0"/>
    <type id="highway.stairs" priority="1" numLanes="1" speed="1.39" allow="pedestrian" oneway="1" width="2.00"/>
    <type id="highway.step" priority="1" numLanes="1" speed="1.39" allow="pedestrian" oneway="1" width="2.00"/>
    <type id="highway.steps" priority="1" numLanes="1" speed="1.39" allow="pedestrian" oneway="1" width="2.00"/>
    <type id="highway.tertiary" priority="10" numLanes="1" speed="22.22" disallow="tram rail_urban rail rail_electric rail_fast ship" oneway="0"/>
    <type id="highway.tertiary_link" priority="5" numLanes="1" speed="22.22" disallow="tram rail_urban rail rail_electric rail_fast ship" oneway="0"/>
    <type id="highway.track" priority="1" numLanes="1" speed="5.56" allow="pedestrian motorcycle moped bicycle" oneway="0"/>
    <type id="highway.trunk" priority="13" numLanes="2" speed="27.78" disallow="pedestrian bicycle tram rail_urban rail rail_electric rail_fast ship" oneway="0"/>
    <type id="highway.trunk_link" priority="8" numLanes="1" speed="22.22" disallow="pedestrian bicycle tram rail_urban rail rail_electric rail_fast ship" oneway="0"/>
    <type id="highway.unclassified" priority="4" numLanes="1" speed="13.89" disallow="tram rail_urban rail rail_electric rail_fast ship" oneway="0"/>
    <type id="highway.unsurfaced" priority="1" numLanes="1" speed="8.33" disallow="tram rail_urban rail rail_electric rail_fast ship" oneway="0"/>
    <type id="railway.highspeed" priority="21" numLanes="1" speed="69.44" allow="rail_fast" oneway="1"/>
    <type id="railway.light_rail" priority="19" numLanes="1" speed="27.78" allow="rail_urban" oneway="1"/>
    <type id="railway.preserved" priority="16" numLanes="1" speed="27.78" allow="rail" oneway="1"/>
    <type id="railway.rail" priority="20" numLanes="1" speed="44.44" allow="rail" oneway="1"/>
    <type id="railway.subway" priority="18" numLanes="1" speed="27.78" allow="rail_urban" oneway="1"/>
    <type id="railway.tram" priority="17" numLanes="1" speed="13.89" allow="tram" oneway="1"/>

    <edge id=":1117483229_0" function="internal">
        <lane id=":1117483229_0_0" index="0" disallow="tram rail_urban rail rail_electric rail_fast ship" speed="3.65" length="4.67" shape="7602.66,8455.92 7601.93,8457.16 7601.15,8457.61 7600.33,8457.25 7599.47,8456.10"/>
    </edge>
    <edge id=":1583719840_0" function="internal">
        <lane id=":1583719840_0_0" index="0" disallow="tram rail_urban rail rail_electric rail_fast ship" speed="3.65" length="4.67" shape="6053.11,4757.76 6054.09,4756.69 6054.94,4756.42 6055.67,4756.94 6056.28,4758.24"/>
    </edge>
    <edge id=":1893660045_0" function="internal">
        <lane id=":1893660045_0_0" index="0" disallow="tram rail_urban rail rail_electric rail_fast ship" speed="7.80" length="11.28" shape="5993.35,5702.48 5990.42,5703.05 5988.18,5704.39 5986.62,5706.52 5985.75,5709.43"/>
    </edge>
    <edge id=":1893660045_1" function="internal">
        <lane id=":1893660045_1_0" index="0" disallow="tram rail_urban rail rail_electric rail_fast ship" speed="13.89" length="15.82" shape="5993.35,5702.48 5977.55,5703.37"/>
    </edge>
    <edge id=":1893660045_2" function="internal">
        <lane id=":1893660045_2_0" index="0" disallow="tram rail_urban rail rail_electric rail_fast ship" speed="7.71" length="5.98" shape="5993.35,5702.48 5989.16,5702.10 5987.63,5701.20"/>
    </edge>
    <edge id=":1893660045_3" function="internal">
        <lane id=":1893660045_3_0" index="0" disallow="tram rail_urban rail rail_electric rail_fast ship" speed="3.65" length="2.34" shape="5993.35,5702.48 5992.11,5701.75 5991.67,5700.97"/>
    </edge>
    <edge id=":1893660045_16" function="internal">
        <lane id=":1893660045_16_0" index="0" disallow="tram rail_urban rail rail_electric rail_fast ship" speed="7.71" length="8.96" shape="5987.63,5701.20 5986.35,5700.44 5984.92,5697.51 5984.87,5693.30"/>
    </edge>
    <edge id=":1893660045_17" function="internal">
        <lane id=":1893660045_17_0" index="0" disallow="tram rail_urban rail rail_electric rail_fast ship" speed="3.65" length="2.34" shape="5991.67,5700.97 5992.03,5700.15 5993.18,5699.29"/>
    </edge>
    <edge id=":1893660045_4" function="internal">
        <lane id=":1893660045_4_0" index="0" disallow="tram rail_urban rail rail_electric rail_fast ship" speed="6.14" length="9.06" shape="5988.04,5693.72 5988.07,5696.27 5988.94,5698.05 5990.64,5699.06 5993.18,5699.29"/>
    </edge>
    <edge id=":1893660045_5" function="internal">
        <lane id=":1893660045_5_0" index="0" disallow="tram rail_urban rail rail_electric rail_fast ship" speed="13.89" length="15.88" shape="5988.04,5693.72 5985.75,5709.43"/>
    </edge>
    <edge id=":1893660045_6" function="internal">
        <lane id=":1893660045_6_0" index="0" disallow="tram rail_urban rail rail_electric rail_fast ship" speed="9.02" length="15.66" shape="5988.04,5693.72 5986.94,5697.74 5984.82,5700.68 5981.69,5702.56 5977.55,5703.37"/>
    </edge>
    <edge id=":1893660045_7" function="internal">
        <lane id=":1893660045_7_0" index="0" disallow="tram rail_urban rail rail_electric rail_fast ship" speed="3.65" length="4.67" shape="5988.04,5693.72 5987.09,5694.81 5986.25,5695.10 5985.51,5694.60 5984.87,5693.30"/>
    </edge>
    <edge id=":1893660045_8" function="internal">
        <lane id=":1893660045_8_0" index="0" disallow="tram rail_urban rail rail_electric rail_fast ship" speed="7.71" length="11.18" shape="5977.36,5700.17 5980.32,5699.60 5982.56,5698.26 5984.08,5696.16 5984.87,5693.30"/>
    </edge>
    <edge id=":1893660045_9" function="internal">
        <lane id=":1893660045_9_0" index="0" disallow="tram rail_urban rail rail_electric rail_fast ship" speed="13.89" length="15.85" shape="5977.36,5700.17 5993.18,5699.29"/>
    </edge>
    <edge id=":1893660045_10" function="internal">
        <lane id=":1893660045_10_0" index="0" disallow="tram rail_urban rail rail_electric rail_fast ship" speed="7.67" length="6.08" shape="5977.36,5700.17 5981.62,5700.53 5983.18,5701.45"/>
    </edge>
    <edge id=":1893660045_11" function="internal">
        <lane id=":1893660045_11_0" index="0" disallow="tram rail_urban rail rail_electric rail_fast ship" speed="3.65" length="2.34" shape="5977.36,5700.17 5978.61,5700.90 5979.05,5701.67"/>
    </edge>
    <edge id=":1893660045_18" function="internal">
        <lane id=":1893660045_18_0" index="0" disallow="tram rail_urban rail rail_electric rail_fast ship" speed="7.67" length="9.01" shape="5983.18,5701.45 5984.44,5702.19 5985.81,5705.16 5985.75,5709.43"/>
    </edge>
    <edge id=":1893660045_19" function="internal">
        <lane id=":1893660045_19_0" index="0" disallow="tram rail_urban rail rail_electric rail_fast ship" speed="3.65" length="2.34" shape="5979.05,5701.67 5978.70,5702.50 5977.55,5703.37"/>
    </edge>
    <edge id=":1893660045_12" function="internal">
        <lane id=":1893660045_12_0" index="0" disallow="tram rail_urban rail rail_electric rail_fast ship" speed="6.09" length="9.06" shape="5982.59,5708.93 5982.63,5706.36 5981.80,5704.58 5980.11,5703.58 5977.55,5703.37"/>
    </edge>
    <edge id=":1893660045_13" function="internal">
        <lane id=":1893660045_13_0" index="0" disallow="tram rail_urban rail rail_electric rail_fast ship" speed="13.89" length="15.79" shape="5982.59,5708.93 5984.87,5693.30"/>
    </edge>
    <edge id=":1893660045_14" function="internal">
        <lane id=":1893660045_14_0" index="0" disallow="tram rail_urban rail rail_electric rail_fast ship" speed="9.11" length="15.68" shape="5982.59,5708.93 5983.80,5704.89 5985.97,5701.94 5989.10,5700.07 5993.18,5699.29"/>
    </edge>
    <edge id=":1893660045_15" function="internal">
        <lane id=":1893660045_15_0" index="0" disallow="tram rail_urban rail rail_electric rail_fast ship" speed="3.65" length="4.67" shape="5982.59,5708.93 5983.57,5707.87 5984.42,5707.60 5985.15,5708.12 5985.75,5709.43"/>
    </edge>
    <edge id=":1893660074_0" function="internal">
        <lane id=":1893660074_0_0" index="0" disallow="tram rail_urban rail rail_electric rail_fast ship" speed="27.78" length="0.55" shape="5675.56,6107.56 5675.40,6107.58 5675.29,6107.60 5675.19,6107.64 5675.04,6107.71"/>
    </edge>
    <edge id=":1893660074_1" function="internal">
        <lane id=":1893660074_1_0" index="0" disallow="tram rail_urban rail rail_electric rail_fast ship" speed="10.95" length="1.64" shape="5673.64,6104.83 5674.08,6104.63 5674.39,6104.51 5674.72,6104.44 5675.20,6104.38"/>
    </edge>
    <edge id=":1893660108_0" function="internal">
        <lane id=":1893660108_0_0" index="0" disallow="tram rail_urban rail rail_electric rail_fast ship" speed="18.57" length="16.21" shape="5813.49,6075.85 5809.52,6075.57 5805.30,6075.45 5801.18,6075.81 5797.48,6076.96"/>
    </edge>
    <edge id=":1893660108_1" function="internal">
        <lane id=":1893660108_1_0" index="0" disallow="tram rail_urban rail rail_electric rail_fast ship" speed="7.48" length="20.23" shape="5813.49,6075.85 5807.02,6074.71 5804.30,6072.44 5805.32,6069.05 5810.10,6064.54"/>
    </edge>
    <edge id=":1893660108_2" function="internal">
        <lane id=":1893660108_2_0" index="0" disallow="tram rail_urban rail rail_electric rail_fast ship" speed="3.65" length="4.67" shape="5813.49,6075.85 5812.35,6074.96 5812.01,6074.14 5812.46,6073.37 5813.71,6072.65"/>
    </edge>
    <edge id=":1893660108_3" function="internal">
        <lane id=":1893660108_3_0" index="0" disallow="tram rail_urban rail rail_electric rail_fast ship" speed="5.46" length="9.96" shape="5812.04,6067.08 5809.69,6069.31 5809.18,6070.98 5810.53,6072.09 5813.71,6072.65"/>
    </edge>
    <edge id=":1893660108_4" function="internal">
        <lane id=":1893660108_4_0" index="0" disallow="tram rail_urban rail rail_electric rail_fast ship" speed="27.78" length="17.61" shape="5812.04,6067.08 5808.72,6069.60 5804.96,6072.34 5801.10,6074.92 5797.48,6076.96"/>
    </edge>
    <edge id=":1893660108_5" function="internal">
        <lane id=":1893660108_5_0" index="0" disallow="tram rail_urban rail rail_electric rail_fast ship" speed="3.65" length="2.34" shape="5812.04,6067.08 5810.60,6067.17 5809.80,6066.78"/>
    </edge>
    <edge id=":1893660108_9" function="internal">
        <lane id=":1893660108_9_0" index="0" disallow="tram rail_urban rail rail_electric rail_fast ship" speed="3.65" length="2.34" shape="5809.80,6066.78 5809.63,6065.90 5810.10,6064.54"/>
    </edge>
    <edge id=":1893660108_6" function="internal">
        <lane id=":1893660108_6_0" index="0" disallow="tram rail_urban rail rail_electric rail_fast ship" speed="27.78" length="16.99" shape="5796.08,6074.09 5799.61,6072.10 5803.28,6069.63 5806.86,6067.00 5810.10,6064.54"/>
    </edge>
    <edge id=":1893660108_7" function="internal">
        <lane id=":1893660108_7_0" index="0" disallow="tram rail_urban rail rail_electric rail_fast ship" speed="19.47" length="5.58" shape="5796.08,6074.09 5800.03,6072.89 5801.47,6072.74"/>
    </edge>
    <edge id=":1893660108_8" function="internal">
        <lane id=":1893660108_8_0" index="0" disallow="tram rail_urban rail rail_electric rail_fast ship" speed="3.65" length="2.23" shape="5796.08,6074.09 5797.51,6074.28 5798.13,6074.76"/>
    </edge>
    <edge id=":1893660108_10" function="internal">
        <lane id=":1893660108_10_0" index="0" disallow="tram rail_urban rail rail_electric rail_fast ship" speed="19.47" length="12.27" shape="5801.47,6072.74 5804.71,6072.42 5809.49,6072.42 5813.71,6072.65"/>
    </edge>
    <edge id=":1893660108_11" function="internal">
        <lane id=":1893660108_11_0" index="0" disallow="tram rail_urban rail rail_electric rail_fast ship" speed="3.65" length="2.44" shape="5798.13,6074.76 5798.22,6074.82 5798.21,6075.72 5797.48,6076.96"/>
    </edge>
    <edge id=":2729431177_0" function="internal">
        <lane id=":2729431177_0_0" index="0" disallow="tram rail_urban rail rail_electric rail_fast ship" speed="13.89" length="11.82" shape="6071.09,5699.07 6067.92,5698.33 6065.29,5697.94 6062.64,5697.88 6059.40,5698.09"/>
    </edge>
    <edge id=":2729431177_1" function="internal">
        <lane id=":2729431177_1_0" index="0" disallow="tram rail_urban rail rail_electric rail_fast ship" speed="8.03" length="5.21" shape="6071.09,5699.07 6067.85,5697.74 6066.61,5696.56"/>
    </edge>
    <edge id=":2729431177_2" function="internal">
        <lane id=":2729431177_2_0" index="0" disallow="tram rail_urban rail rail_electric rail_fast ship" speed="3.65" length="2.34" shape="6071.09,5699.07 6070.13,5698.00 6069.94,5697.12"/>
    </edge>
    <edge id=":2729431177_9" function="internal">
        <lane id=":2729431177_9_0" index="0" disallow="tram rail_urban rail rail_electric rail_fast ship" speed="8.03" length="7.76" shape="6066.61,5696.56 6065.68,5695.69 6064.58,5692.91 6064.55,5689.41"/>
    </edge>
    <edge id=":2729431177_10" function="internal">
        <lane id=":2729431177_10_0" index="0" disallow="tram rail_urban rail rail_electric rail_fast ship" speed="3.65" length="2.34" shape="6069.94,5697.12 6070.52,5696.45 6071.88,5695.97"/>
    </edge>
    <edge id=":2729431177_3" function="internal">
        <lane id=":2729431177_3_0" index="0" disallow="tram rail_urban rail rail_electric rail_fast ship" speed="6.53" length="8.25" shape="6067.72,5689.82 6067.74,5692.05 6068.45,5693.82 6069.83,5695.12 6071.88,5695.97"/>
    </edge>
    <edge id=":2729431177_4" function="internal">
        <lane id=":2729431177_4_0" index="0" disallow="tram rail_urban rail rail_electric rail_fast ship" speed="8.32" length="12.83" shape="6067.72,5689.82 6066.83,5693.19 6065.15,5695.68 6062.67,5697.32 6059.40,5698.09"/>
    </edge>
    <edge id=":2729431177_5" function="internal">
        <lane id=":2729431177_5_0" index="0" disallow="tram rail_urban rail rail_electric rail_fast ship" speed="3.65" length="4.67" shape="6067.72,5689.82 6066.78,5690.91 6065.93,5691.21 6065.19,5690.71 6064.55,5689.41"/>
    </edge>
    <edge id=":2729431177_6" function="internal">
        <lane id=":2729431177_6_0" index="0" disallow="tram rail_urban rail rail_electric rail_fast ship" speed="6.87" length="8.46" shape="6059.10,5694.91 6061.24,5694.40 6062.86,5693.31 6063.96,5691.65 6064.55,5689.41"/>
    </edge>
    <edge id=":2729431177_7" function="internal">
        <lane id=":2729431177_7_0" index="0" disallow="tram rail_urban rail rail_electric rail_fast ship" speed="13.89" length="12.91" shape="6059.10,5694.91 6062.52,5694.70 6065.54,5694.80 6068.54,5695.21 6071.88,5695.97"/>
    </edge>
    <edge id=":2729431177_8" function="internal">
        <lane id=":2729431177_8_0" index="0" disallow="tram rail_urban rail rail_electric rail_fast ship" speed="3.65" length="2.34" shape="6059.10,5694.91 6060.37,5695.59 6060.84,5696.35"/>
    </edge>
    <edge id=":2729431177_11" function="internal">
        <lane id=":2729431177_11_0" index="0" disallow="tram rail_urban rail rail_electric rail_fast ship" speed="3.65" length="2.34" shape="6060.84,5696.35 6060.52,5697.19 6059.40,5698.09"/>
    </edge>
    <edge id=":2729431182_0" function="internal">
        <lane id=":2729431182_0_0" index="0" disallow="tram rail_urban rail rail_electric rail_fast ship" speed="13.89" length="7.30" shape="6043.17,5951.72 6043.28,5953.84 6042.93,5955.31 6042.53,5956.78 6042.52,5958.92"/>
    </edge>
    <edge id=":2729431182_1" function="internal">
        <lane id=":2729431182_1_0" index="0" disallow="tram rail_urban rail rail_electric rail_fast ship" speed="3.65" length="2.54" shape="6043.17,5951.72 6042.60,5953.05 6041.89,5953.59 6041.69,5953.53"/>
    </edge>
    <edge id=":2729431182_4" function="internal">
        <lane id=":2729431182_4_0" index="0" disallow="tram rail_urban rail rail_electric rail_fast ship" speed="3.65" length="2.13" shape="6041.69,5953.53 6041.03,5953.34 6040.02,5952.31"/>
    </edge>
    <edge id=":2729431182_2" function="internal">
        <lane id=":2729431182_2_0" index="0" disallow="tram rail_urban rail rail_electric rail_fast ship" speed="7.36" length="5.78" shape="6038.22,5957.60 6039.19,5956.28 6039.82,5954.96 6040.09,5953.63 6040.02,5952.31"/>
    </edge>
    <edge id=":2729431182_3" function="internal">
        <lane id=":2729431182_3_0" index="0" disallow="tram rail_urban rail rail_electric rail_fast ship" speed="4.82" length="3.49" shape="6038.22,5957.60 6039.85,5956.12 6041.11,5955.84"/>
    </edge>
    <edge id=":2729431182_5" function="internal">
        <lane id=":2729431182_5_0" index="0" disallow="tram rail_urban rail rail_electric rail_fast ship" speed="4.82" length="3.49" shape="6041.11,5955.84 6042.00,5956.78 6042.52,5958.92"/>
    </edge>
    <edge id=":2729431184_0" function="internal">
        <lane id=":2729431184_0_0" index="0" disallow="tram rail_urban rail rail_electric rail_fast ship" speed="5.73" length="9.18" shape="6032.16,5980.61 6029.60,5979.68 6027.75,5979.96 6026.61,5981.44 6026.19,5984.13"/>
    </edge>
    <edge id=":2729431184_1" function="internal">
        <lane id=":2729431184_1_0" index="0" disallow="tram rail_urban rail rail_electric rail_fast ship" speed="11.11" length="15.16" shape="6032.16,5980.61 6018.73,5973.58"/>
    </edge>
    <edge id=":2729431184_2" function="internal">
        <lane id=":2729431184_2_0" index="0" disallow="tram rail_urban rail rail_electric rail_fast ship" speed="7.17" length="11.33" shape="6032.16,5980.61 6029.08,5978.60 6027.27,5976.45 6026.73,5974.18 6027.45,5971.78"/>
    </edge>
    <edge id=":2729431184_3" function="internal">
        <lane id=":2729431184_3_0" index="0" disallow="tram rail_urban rail rail_electric rail_fast ship" speed="9.02" length="11.90" shape="6022.99,5984.07 6022.79,5980.34 6022.01,5977.35 6020.66,5975.10 6018.73,5973.58"/>
    </edge>
    <edge id=":2729431184_4" function="internal">
        <lane id=":2729431184_4_0" index="0" disallow="tram rail_urban rail rail_electric rail_fast ship" speed="13.89" length="13.23" shape="6022.99,5984.07 6023.39,5980.65 6024.36,5977.69 6025.76,5974.84 6027.45,5971.78"/>
    </edge>
    <edge id=":2729431184_5" function="internal">
        <lane id=":2729431184_5_0" index="0" disallow="tram rail_urban rail rail_electric rail_fast ship" speed="3.65" length="4.67" shape="6022.99,5984.07 6023.82,5982.88 6024.62,5982.50 6025.42,5982.91 6026.19,5984.13"/>
    </edge>
    <edge id=":2729431186_0" function="internal">
        <lane id=":2729431186_0_0" index="0" disallow="tram rail_urban rail rail_electric rail_fast ship" speed="11.11" length="11.18" shape="6044.49,5987.53 6034.78,5981.99"/>
    </edge>
    <edge id=":2729431186_1" function="internal">
        <lane id=":2729431186_1_0" index="0" disallow="tram rail_urban rail rail_electric rail_fast ship" speed="6.38" length="9.00" shape="6042.18,5979.56 6040.84,5981.62 6039.16,5982.72 6037.14,5982.84 6034.78,5981.99"/>
    </edge>
    <edge id=":2729431202_0" function="internal">
        <lane id=":2729431202_0_0" index="0" disallow="tram rail_urban rail rail_electric rail_fast ship" speed="13.89" length="13.95" shape="6315.75,6089.26 6314.63,6092.68 6313.72,6095.95 6313.05,6099.27 6312.67,6102.82"/>
    </edge>
    <edge id=":2729431202_1" function="internal">
        <lane id=":2729431202_1_0" index="0" disallow="tram rail_urban rail rail_electric rail_fast ship" speed="7.46" length="6.07" shape="6315.75,6089.26 6313.63,6093.51 6312.55,6094.28"/>
    </edge>
    <edge id=":2729431202_2" function="internal">
        <lane id=":2729431202_2_0" index="0" disallow="tram rail_urban rail rail_electric rail_fast ship" speed="3.65" length="2.34" shape="6315.75,6089.26 6314.61,6090.15 6313.72,6090.27"/>
    </edge>
    <edge id=":2729431202_9" function="internal">
        <lane id=":2729431202_9_0" index="0" disallow="tram rail_urban rail rail_electric rail_fast ship" speed="7.46" length="10.07" shape="6312.55,6094.28 6310.93,6095.44 6307.63,6095.05 6303.73,6092.35"/>
    </edge>
    <edge id=":2729431202_10" function="internal">
        <lane id=":2729431202_10_0" index="0" disallow="tram rail_urban rail rail_electric rail_fast ship" speed="3.65" length="2.34" shape="6313.72,6090.27 6313.09,6089.64 6312.71,6088.24"/>
    </edge>
    <edge id=":2729431202_3" function="internal">
        <lane id=":2729431202_3_0" index="0" disallow="tram rail_urban rail rail_electric rail_fast ship" speed="5.79" length="9.15" shape="6305.90,6089.99 6308.11,6091.53 6309.98,6091.75 6311.51,6090.65 6312.71,6088.24"/>
    </edge>
    <edge id=":2729431202_4" function="internal">
        <lane id=":2729431202_4_0" index="0" disallow="tram rail_urban rail rail_electric rail_fast ship" speed="11.70" length="14.96" shape="6305.90,6089.99 6308.99,6093.26 6311.15,6096.49 6312.38,6099.68 6312.67,6102.82"/>
    </edge>
    <edge id=":2729431202_5" function="internal">
        <lane id=":2729431202_5_0" index="0" disallow="tram rail_urban rail rail_electric rail_fast ship" speed="3.65" length="4.67" shape="6305.90,6089.99 6306.24,6091.39 6305.99,6092.25 6305.15,6092.57 6303.73,6092.35"/>
    </edge>
    <edge id=":2729431202_6" function="internal">
        <lane id=":2729431202_6_0" index="0" disallow="tram rail_urban rail rail_electric rail_fast ship" speed="10.58" length="12.14" shape="6309.47,6102.64 6309.22,6100.22 6308.17,6097.69 6306.34,6095.07 6303.73,6092.35"/>
    </edge>
    <edge id=":2729431202_7" function="internal">
        <lane id=":2729431202_7_0" index="0" disallow="tram rail_urban rail rail_electric rail_fast ship" speed="13.89" length="14.80" shape="6309.47,6102.64 6309.88,6098.95 6310.60,6095.35 6311.58,6091.79 6312.71,6088.24"/>
    </edge>
    <edge id=":2729431202_8" function="internal">
        <lane id=":2729431202_8_0" index="0" disallow="tram rail_urban rail rail_electric rail_fast ship" speed="3.65" length="2.34" shape="6309.47,6102.64 6310.34,6101.49 6311.16,6101.14"/>
    </edge>
    <edge id=":2729431202_11" function="internal">
        <lane id=":2729431202_11_0" index="0" disallow="tram rail_urban rail rail_electric rail_fast ship" speed="3.65" length="2.34" shape="6311.16,6101.14 6311.94,6101.58 6312.67,6102.82"/>
    </edge>
    <edge id=":2729431217_0" function="internal">
        <lane id=":2729431217_0_0" index="0" disallow="tram rail_urban rail rail_electric rail_fast ship" speed="12.50" length="17.46" shape="6288.72,6289.59 6286.22,6286.89 6282.85,6284.72 6278.62,6283.06 6273.51,6281.93"/>
    </edge>
    <edge id=":2729431217_1" function="internal">
        <lane id=":2729431217_1_0" index="0" disallow="tram rail_urban rail rail_electric rail_fast ship" speed="11.11" length="19.75" shape="6288.72,6289.59 6277.03,6273.67"/>
    </edge>
    <edge id=":2729431217_2" function="internal">
        <lane id=":2729431217_2_0" index="0" disallow="tram rail_urban rail rail_electric rail_fast ship" speed="12.32" length="15.09" shape="6288.72,6289.59 6285.87,6285.17 6283.97,6281.41 6283.01,6278.34 6283.00,6275.94"/>
    </edge>
    <edge id=":2729431217_3" function="internal">
        <lane id=":2729431217_3_0" index="0" disallow="tram rail_urban rail rail_electric rail_fast ship" speed="6.18" length="12.25" shape="6288.72,6289.59 6286.28,6285.50 6285.54,6282.65 6286.50,6281.05 6289.14,6280.69"/>
    </edge>
    <edge id=":2729431217_4" function="internal">
        <lane id=":2729431217_4_0" index="0" disallow="tram rail_urban rail rail_electric rail_fast ship" speed="13.89" length="15.51" shape="6288.90,6283.88 6273.51,6281.93"/>
    </edge>
    <edge id=":2729431217_5" function="internal">
        <lane id=":2729431217_5_0" index="0" disallow="tram rail_urban rail rail_electric rail_fast ship" speed="12.50" length="15.94" shape="6288.90,6283.88 6286.62,6283.12 6283.88,6281.17 6280.69,6278.02 6277.03,6273.67"/>
    </edge>
    <edge id=":2729431217_6" function="internal">
        <lane id=":2729431217_6_0" index="0" disallow="tram rail_urban rail rail_electric rail_fast ship" speed="6.98" length="11.69" shape="6288.90,6283.88 6285.71,6283.17 6283.66,6281.61 6282.76,6279.20 6283.00,6275.94"/>
    </edge>
    <edge id=":2729431217_7" function="internal">
        <lane id=":2729431217_7_0" index="0" disallow="tram rail_urban rail rail_electric rail_fast ship" speed="3.65" length="4.67" shape="6288.90,6283.88 6287.77,6282.99 6287.43,6282.16 6287.89,6281.39 6289.14,6280.69"/>
    </edge>
    <edge id=":2729431217_8" function="internal">
        <lane id=":2729431217_8_0" index="0" disallow="tram rail_urban rail rail_electric rail_fast ship" speed="5.20" length="5.98" shape="6286.12,6276.63 6286.00,6278.30 6286.46,6279.53 6287.51,6280.32 6289.14,6280.69"/>
    </edge>
    <edge id=":2729431217_9" function="internal">
        <lane id=":2729431217_9_0" index="0" disallow="tram rail_urban rail rail_electric rail_fast ship" speed="8.46" length="15.21" shape="6286.12,6276.63 6284.75,6279.60 6282.19,6281.47 6278.45,6282.25 6273.51,6281.93"/>
    </edge>
    <edge id=":2729431217_10" function="internal">
        <lane id=":2729431217_10_0" index="0" disallow="tram rail_urban rail rail_electric rail_fast ship" speed="6.30" length="12.82" shape="6286.12,6276.63 6285.00,6278.97 6283.11,6279.25 6280.45,6277.49 6277.03,6273.67"/>
    </edge>
    <edge id=":2729431217_11" function="internal">
        <lane id=":2729431217_11_0" index="0" disallow="tram rail_urban rail rail_electric rail_fast ship" speed="3.65" length="4.67" shape="6286.12,6276.63 6285.08,6277.63 6284.21,6277.85 6283.52,6277.28 6283.00,6275.94"/>
    </edge>
    <edge id=":2729431217_12" function="internal">
        <lane id=":2729431217_12_0" index="0" disallow="tram rail_urban rail rail_electric rail_fast ship" speed="5.47" length="9.90" shape="6274.01,6278.77 6277.20,6278.92 6278.77,6278.12 6278.71,6276.37 6277.03,6273.67"/>
    </edge>
    <edge id=":2729431217_13" function="internal">
        <lane id=":2729431217_13_0" index="0" disallow="tram rail_urban rail rail_electric rail_fast ship" speed="7.07" length="10.34" shape="6274.01,6278.77 6277.60,6279.07 6280.30,6278.70 6282.09,6277.65 6283.00,6275.94"/>
    </edge>